47
7_helicene
C          0.48870        6.18864        7.26816
H          1.20443        6.53987        6.75023
H          0.83086        3.26993        9.92710
C          0.73345        5.24338        8.21022
H          1.60939        4.88529        8.29118
C         -0.85018        6.65937        7.05259
C         -0.29547        4.77545        9.08182
C         -1.88554        6.27186        7.94035
C         -1.14888        7.44365        5.92361
C         -0.02979        3.67244        9.93259
C         -1.57558        5.40730        9.07366
C         -3.20832        6.64424        7.60200
C         -2.43784        7.81898        5.64224
H         -0.44603        7.71811        5.34587
C         -1.00074        3.18209       10.76071
C         -2.47327        5.05257       10.14000
H         -3.92647        6.36334        8.15791
C         -3.48125        7.40667        6.48335
H         -2.62302        8.35556        4.88109
C         -2.20597        3.87769       10.86250
H         -0.85743        2.38450       11.25649
C         -3.74855        5.61563       10.67026
H         -4.37652        7.65226        6.28378
C         -3.38383        3.49620       11.69645
C         -4.33707        4.62022       11.46756
C         -4.38377        6.89866       10.61112
H         -3.76867        2.63388       11.39809
H         -3.13667        3.42685       12.65251
C         -5.62121        4.74252       11.99398
C         -5.73875        6.96157       11.04009
C         -3.74371        8.14780       10.22763
C         -6.34258        5.87860       11.71278
H         -5.98994        4.05589       12.53590
C         -6.50923        8.15116       10.79337
C         -4.54318        9.29101        9.97524
C         -2.34204        8.31101       10.20597
H         -7.25476        5.93464       11.97282
H         -7.42705        8.16923       11.03825
C         -5.95774        9.23945       10.22330
C         -3.93211       10.50498        9.59925
H         -1.78410        7.57381       10.42187
C         -1.76881        9.51938        9.87879
H         -6.50682        9.97652        9.98374
H         -4.47314       11.25423        9.37902
C         -2.56424       10.61790        9.54794
H         -0.82281        9.60666        9.87879
H         -2.16250       11.43916        9.28906

